13
symmetry oh
Mo       0.000000000      0.000000000      0.000000000
C        0.000000000      0.000000000      2.079376000
C        0.000000000      2.079376000      0.000000000
C       -2.079376000      0.000000000      0.000000000
C        2.079376000      0.000000000      0.000000000
C        0.000000000     -2.079376000      0.000000000
C        0.000000000      0.000000000     -2.079376000
O       -3.228628000      0.000000000      0.000000000
O        0.000000000      3.228628000      0.000000000
O        0.000000000      0.000000000     -3.228628000
O        3.228628000      0.000000000      0.000000000
O        0.000000000     -3.228628000      0.000000000
O        0.000000000      0.000000000      3.228628000
